0.01 TPFEVEYAL 0.912732
0.015 VPWGKNVHL 0.885207
0.02 SPSGPVTIM 0.869576
0.025 HPMTKALLL 0.852707
0.03 VPYQEFAKL 0.835819
0.04 LPEGARAAM 0.794508
0.05 VPWVPRTTTM 0.751441
0.06 SPRVALGAV 0.681703
0.07 EPYNAVLSF 0.645177
0.08 SPFFIVIGF 0.617380
0.09 SPRNAPGEI 0.571147
0.1 MAFAGRLTF 0.549910
0.125 LPVWALSTAL 0.496368
0.15 VPTASRGDL 0.443048
0.175 FPPLGRLPV 0.406396
0.2 GPITLNVRF 0.385344
0.25 YPQYSEEARL 0.327261
0.3 SPLFGLIGTI 0.285821
0.4 NTMDTLASL 0.225856
0.5 APGVHEEIL 0.183100
0.6 QPMTEAEL 0.148849
0.7 APATLLAALN 0.125704
0.8 FPGSEVKDM 0.111443
0.9 NPLAAISQA 0.096945
1.0 RQLIGPVEL 0.084726
1.1 FRYHPQQPL 0.075083
1.2 ISFGKTKVL 0.067440
1.3 FLADAAAAV 0.059849
1.4 RSAGFVVTF 0.053939
1.5 GQCGPVGVRKEM 0.049712
1.6 MLKSIHSKM 0.045108
1.7 IVAGYPRLM 0.041055
1.8 LPGYTPPGSY 0.038039
1.9 EYARDLLLAL 0.035263
2 TRFDEGYVV 0.032712
2.5 IKKQHSAAL 0.022810
3 IDPLNVLVLI 0.016426
3.5 SGSGKTTLL 0.012752
4 RVRVLHRYI 0.010197
4.5 DMAFPRMNNL 0.008227
5 FGDLVFYYL 0.006721
5.5 RVNKTSTGAF 0.005599
6 MPDGRAYMWVA 0.004710
6.5 SINALGQGQQL 0.004024
7 APAGAAVRAET 0.003471
7.5 MDRYDGRIAR 0.003011
8 YHPQAPQYAP 0.002628
8.5 AELGKLQL 0.002286
9 LPPSFPFGG 0.002017
9.5 KTNRKFVDF 0.001791
10 FVHPSSVASA 0.001607
11 LSDAIATAEL 0.001303
12 TPGSLIGNDQIY 0.001071
13 ARYAVALEWV 0.000898
14 YRWLQGPMNH 0.000754
15 KHPLLQNQGRL 0.000641
16 HRRRTNASGW 0.000549
17 LPLELGLG 0.000474
18 YEISVFLSFSL 0.000411
19 SPGSTGKRG 0.000361
20 DFALPGQRSITW 0.000319
21 MKHTPLGQQYQT 0.000283
22 LEVEDCAMV 0.000252
23 IVSSETSY 0.000225
24 YKTCNVLVA 0.000202
25 TTPVVAGI 0.000181
26 FPVVKNVNPSSE 0.000163
27 SDPNDIKPY 0.000147
28 KTEGIKGSMVV 0.000134
29 RIGSEFLDY 0.000122
30 TEPGLNTLIDNL 0.000111
31 ADEFNNINPR 0.000102
32 VNPTEARQGR 0.000092
33 DLGLVTPETV 0.000085
34 VIGWGLLFAI 0.000077
35 MFGSSKRF 0.000071
36 ALQPTQAVP 0.000066
37 STDLVILDR 0.000060
38 AKRGAKVAVNY 0.000056
39 SGSKTPGRATA 0.000051
40 AAIEAPIVITP 0.000048
41 LLRSKVAVIT 0.000044
42 FEEALRRGQEA 0.000041
43 GHREGLGRRH 0.000038
44 MRIRFLGKPK 0.000035
45 DRNLNTAFFD 0.000033
46 SKHNSSYW 0.000030
47 RRDKPCWYCLQ 0.000028
48 TAEYKRDAIN 0.000026
49 YYKSPMVQ 0.000024
50 HGPPNAAAHLQE 0.000023
55 QVDLSEFA 0.000016
60 ASMRDGISRLDA 0.000012
65 SFAVHWIKAE 0.000008
70 IGPRAARPLARR 0.000006
75 MLPQYAFG 0.000004
80 GLGFVNWA 0.000003
85 GVGAGLAHTYG 0.000002
90 NEEAELHQQRG 0.000001
95 VSTLIALGVMHQ 0.000000
